
#======================================================================
# CRYSTAL DATA
#----------------------------------------------------------------------
data_VESTA_phase_1

_chemical_name_common                  '#===================================='
_cell_length_a                         8.409510
_cell_length_b                         8.409510
_cell_length_c                         8.409510
_cell_angle_alpha                      90.000000
_cell_angle_beta                       90.000000
_cell_angle_gamma                      90.000000
_cell_volume                           594.719284
_space_group_name_H-M_alt              'P 1'
_space_group_IT_number                 1

loop_
_space_group_symop_operation_xyz
   'x, y, z'

loop_
   _atom_site_label
   _atom_site_occupancy
   _atom_site_fract_x
   _atom_site_fract_y
   _atom_site_fract_z
   _atom_site_adp_type
   _atom_site_U_iso_or_equiv
   _atom_site_type_symbol
O1 1.0 0.239980 0.239980 0.239980 Uiso 0.011800 O 
O1 1.0 0.760020 0.760020 0.760020 Uiso 0.011800 O 
O1 1.0 0.510020 0.010020 0.739980 Uiso 0.011800 O 
O1 1.0 0.489980 0.989980 0.260020 Uiso 0.011800 O 
O1 1.0 0.010020 0.739980 0.510020 Uiso 0.011800 O 
O1 1.0 0.989980 0.260020 0.489980 Uiso 0.011800 O 
O1 1.0 0.739980 0.510020 0.010020 Uiso 0.011800 O 
O1 1.0 0.260020 0.489980 0.989980 Uiso 0.011800 O 
O1 1.0 0.989980 0.489980 0.260020 Uiso 0.011800 O 
O1 1.0 0.010020 0.510020 0.739980 Uiso 0.011800 O 
O1 1.0 0.489980 0.260020 0.989980 Uiso 0.011800 O 
O1 1.0 0.510020 0.739980 0.010020 Uiso 0.011800 O 
O1 1.0 0.260020 0.989980 0.489980 Uiso 0.011800 O 
O1 1.0 0.739980 0.010020 0.510020 Uiso 0.011800 O 
O1 1.0 0.239980 0.739980 0.739980 Uiso 0.011800 O 
O1 1.0 0.760020 0.260020 0.260020 Uiso 0.011800 O 
O1 1.0 0.510020 0.510020 0.239980 Uiso 0.011800 O 
O1 1.0 0.489980 0.489980 0.760020 Uiso 0.011800 O 
O1 1.0 0.010020 0.239980 0.010020 Uiso 0.011800 O 
O1 1.0 0.989980 0.760020 0.989980 Uiso 0.011800 O 
O1 1.0 0.989980 0.989980 0.760020 Uiso 0.011800 O 
O1 1.0 0.010020 0.010020 0.239980 Uiso 0.011800 O 
O1 1.0 0.489980 0.760020 0.489980 Uiso 0.011800 O 
O1 1.0 0.510020 0.239980 0.510020 Uiso 0.011800 O 
O1 1.0 0.739980 0.239980 0.739980 Uiso 0.011800 O 
O1 1.0 0.260020 0.760020 0.260020 Uiso 0.011800 O 
O1 1.0 0.239980 0.510020 0.510020 Uiso 0.011800 O 
O1 1.0 0.760020 0.489980 0.489980 Uiso 0.011800 O 
O1 1.0 0.760020 0.989980 0.989980 Uiso 0.011800 O 
O1 1.0 0.239980 0.010020 0.010020 Uiso 0.011800 O 
O1 1.0 0.739980 0.739980 0.239980 Uiso 0.011800 O 
O1 1.0 0.260020 0.260020 0.760020 Uiso 0.011800 O 
Co1 1.0 0.000000 0.000000 0.000000 Uiso 0.003820 Co 
Co1 1.0 0.750000 0.500000 0.250000 Uiso 0.003820 Co 
Co1 1.0 0.000000 0.750000 0.750000 Uiso 0.003820 Co 
Co1 1.0 0.000000 0.250000 0.250000 Uiso 0.003820 Co 
Fe1 1.0 0.750000 0.250000 0.500000 Uiso 0.003820 Fe 
Fe1 1.0 0.250000 0.500000 0.750000 Uiso 0.003820 Fe 
Fe1 1.0 0.500000 0.750000 0.250000 Uiso 0.003820 Fe 
Fe1 1.0 0.250000 0.000000 0.250000 Uiso 0.003820 Fe 
Fe1 1.0 0.750000 0.000000 0.750000 Uiso 0.003820 Fe 
Fe1 1.0 0.500000 0.000000 0.500000 Uiso 0.003820 Fe 
Mn1 1.0 0.250000 0.750000 0.500000 Uiso 0.003820 Mn 
Mn1 1.0 0.500000 0.250000 0.750000 Uiso 0.003820 Mn 
Mn1 1.0 0.000000 0.500000 0.500000 Uiso 0.003820 Mn 
Mn1 1.0 0.750000 0.750000 0.000000 Uiso 0.003820 Mn 
Mn1 1.0 0.250000 0.250000 0.000000 Uiso 0.003820 Mn 
Mn1 1.0 0.500000 0.500000 0.000000 Uiso 0.003820 Mn 
Co2 1.0 0.625000 0.625000 0.625000 Uiso 0.006800 Co 
Co2 1.0 0.375000 0.875000 0.875000 Uiso 0.006800 Co 
Co2 1.0 0.125000 0.125000 0.625000 Uiso 0.006800 Co 
Co2 1.0 0.875000 0.375000 0.875000 Uiso 0.006800 Co 
Fe2 1.0 0.375000 0.375000 0.375000 Uiso 0.006800 Fe 
Fe2 1.0 0.625000 0.125000 0.125000 Uiso 0.006800 Fe 
Mn2 1.0 0.875000 0.875000 0.375000 Uiso 0.006800 Mn 
Mn2 1.0 0.125000 0.625000 0.125000 Uiso 0.006800 Mn 
